/*--------------------------------*- C++ -*----------------------------------*\
| =========                 |                                                 |
| \\      /  F ield         | OpenFOAM: The Open Source CFD Toolbox           |
|  \\    /   O peration     | Version:  v2012                                 |
|   \\  /    A nd           | Website:  www.openfoam.com                      |
|    \\/     M anipulation  |                                                 |
\*---------------------------------------------------------------------------*/
FoamFile
{
    version     2.0;
    format      ascii;
    class       dictionary;
    location    "system";
    object      controlDict;
}
// * * * * * * * * * * * * * * * * * * * * * * * * * * * * * * * * * * * * * //

application     pisoFoam;

startFrom       latestTime; //latestTime; startTime

startTime       0;

stopAt          endTime;

endTime         2.2367; // 10 Travel times through channel, 22,367 time steps

deltaT          0.0001;

writeControl    timeStep;

writeInterval   500;

purgeWrite      5;

writeFormat     binary;

writePrecision  6;

writeCompression off;

timeFormat      general;

timePrecision   6;

runTimeModifiable false;

// Sample the last 10% of the simulation
timeStart    #eval #{ 0.1 * ${/endTime} #};

functions
{
    #include "setSampling"
    
    fieldAverage1
    {
        type                fieldAverage;
        libs                (fieldFunctionObjects);
        timeStart           $/timeStart;
        writeControl        writeTime;

        fields
        (
            U
            {
                mean        on;
                prime2Mean  on;
                base        time;
            }
        );
    }
}

// libs            (libWallModelledLES);


// ************************************************************************* //
