/*--------------------------------*- C++ -*----------------------------------*\
| =========                 |                                                 |
| \\      /  F ield         | OpenFOAM: The Open Source CFD Toolbox           |
|  \\    /   O peration     | Version:  v2012                                 |
|   \\  /    A nd           | Website:  www.openfoam.com                      |
|    \\/     M anipulation  |                                                 |
\*---------------------------------------------------------------------------*/
FoamFile
{
    version     2.0;
    format      ascii;
    class       dictionary;
    location    "system";
    object      fvSchemes;
}
// * * * * * * * * * * * * * * * * * * * * * * * * * * * * * * * * * * * * * //

ddtSchemes
{
    default         backward;
}

gradSchemes
{
    default         cellLimited Gauss linear 0.5;
    grad(U)         cellLimited leastSquares 1;
    grad(nuTilda)   cellLimited leastSquares 1;
}

divSchemes
{
    default         none;
    div(phi,U)      Gauss LUST grad(U);
    div(phi,k)      Gauss linearUpwind grad(k);
    div(phi,omega)  Gauss linearUpwind grad(omega);
    div(phi,nuTilda) Gauss linearUpwind grad(nuTilda);
    div((nuEff*dev2(T(grad(U))))) Gauss linear;
}

laplacianSchemes
{
    default         Gauss linear limited 1.0; // set t0 0.7 or less for non-Ortho > 70
}

interpolationSchemes
{
    default         linear;
}

snGradSchemes
{
    default         limited 1.0; // set t0 0.7 or less for non-Ortho > 70
}


// ************************************************************************* //
